@<TRIPOS>MOLECULE
MON
   36    37     1     0     0
SMALL
bcc


@<TRIPOS>ATOM
      1 C1          40.1500    25.2430   112.1810 ca       367 MON      -0.153000
      2 C2          41.1910    25.7740   111.4240 ca       367 MON      -0.088300
      3 C3          42.2050    26.4940   112.0470 ca       367 MON      -0.195000
      4 C4          42.1790    26.6840   113.4270 ca       367 MON       0.124100
      5 C5          41.1370    26.1530   114.1830 ca       367 MON      -0.149000
      6 C6          40.1230    25.4320   113.5600 ca       367 MON      -0.099000
      7 C7          41.2240    25.5800   109.9050 c3       367 MON       0.200200
      8 N8          39.9640    26.0900   109.3430 n        367 MON      -0.489900
      9 C9          39.0090    25.2570   108.7490 c        367 MON       0.553400
     10 N10         39.2350    23.8820   108.6300 n        367 MON      -0.440100
     11 C11         40.4370    23.3060   109.0590 c2       367 MON       0.140400
     12 C12         41.4490    24.0960   109.5970 ce       367 MON      -0.281400
     13 O13         43.1220    27.3580   114.0050 oh       367 MON      -0.498100
     14 C14         42.8330    23.5100   109.8830 c        367 MON       0.671300
     15 O15         42.9930    22.1590   109.8440 os       367 MON      -0.447900
     16 C16         44.3370    21.7420   110.1240 c3       367 MON       0.139400
     17 C17         44.4120    20.2270   109.9310 c3       367 MON      -0.101100
     18 C18         40.5870    21.7900   108.9160 c3       367 MON      -0.079900
     19 O19         43.7760    24.2600   110.1310 o        367 MON      -0.565000
     20 S20         37.5420    25.9150   108.1450 s        367 MON      -0.530400
     21 HN10        38.6250    23.3820   108.2870 hn       367 MON       0.360500
     22 H183        39.8940    21.3460   109.4290 hc       367 MON       0.074367
     23 H182        40.5050    21.5430   107.9820 hc       367 MON       0.074367
     24 H181        41.4580    21.5180   109.2460 hc       367 MON       0.074367
     25 H173        43.7930    19.7920   110.5380 hc       367 MON       0.048033
     26 H172        44.1760    20.0050   109.0170 hc       367 MON       0.048033
     27 H171        45.3140    19.9210   110.1150 hc       367 MON       0.048033
     28 H162        44.9610    22.1900   109.5320 h1       367 MON       0.054200
     29 H161        44.5840    21.9810   111.0310 h1       367 MON       0.054200
     30 HN8         39.8080    26.9350   109.3810 hn       367 MON       0.351500
     31 H7          41.9530    26.0740   109.4980 h1       367 MON       0.093700
     32 H6          39.3980    25.0610   114.0860 ha       367 MON       0.138000
     33 H5          41.1180    26.2860   115.1440 ha       367 MON       0.152000
     34 H3          42.9310    26.8640   111.5200 ha       367 MON       0.159000
     35 H1          39.4430    24.7410   111.7470 ha       367 MON       0.136000
     36 H13         43.8390    27.7250   113.4840 ho       367 MON       0.423000
@<TRIPOS>BOND
     1     1     2 ar  
     2     1     6 ar  
     3     1    35 1   
     4     2     3 ar  
     5     2     7 1   
     6     3     4 ar  
     7     3    34 1   
     8     4     5 ar  
     9     4    13 1   
    10     5     6 ar  
    11     5    33 1   
    12     6    32 1   
    13     7     8 1   
    14     7    12 1   
    15     7    31 1   
    16     8     9 1   
    17     8    30 1   
    18     9    10 1   
    19     9    20 2   
    20    10    11 1   
    21    10    21 1   
    22    11    12 2   
    23    11    18 1   
    24    12    14 1   
    25    13    36 1   
    26    14    15 1   
    27    14    19 2   
    28    15    16 1   
    29    16    17 1   
    30    16    28 1   
    31    16    29 1   
    32    17    25 1   
    33    17    26 1   
    34    17    27 1   
    35    18    22 1   
    36    18    23 1   
    37    18    24 1   
@<TRIPOS>SUBSTRUCTURE
     1 MON         1 TEMP              0 ****  ****    0 ROOT
